AMOSTRA/MOL/GD.dss
! GERACAO DISTRIBUIDA — gerada de UGBT_tab e UGMT_tab
! Unidades com potencia nula sao omitidas (gerariam NaN).
! 171 unidades descartadas por potencia nula.
! 430 unidades de BT realocadas para o secundario do transformador (rede secundaria nao modelada).
! 0 unidades descartadas por ponto de conexao ausente da rede.
! irradiance=1 — ver o docstring: 1,0 e meio-dia de ceu claro, nao a ponta de carga.
! 2 barras tiveram a GD limitada a capacidade do transformador (62 kW cortados).
! inversores em pf=1 — ver o docstring de _pv: 0,92 e capacidade exigida pelo PRODIST, nao despacho.
! 0 unidades de MT ligadas pelo PAC da carga (casadas por CEG_GD): o PAC da UGMT nao existe na SSDMT.
New PVSystem.GD_ca71c2b359725f0b07a3306823e1a7f0dd588b1682904774a0c73c314dcf5c9b phases=3 bus1=25526-9361987.1.2.3 conn=wye kv=13.8000 pf=1 pmpp=7.38 kva=7.38 irradiance=1 temperature=25 %cutin=20 %cutout=20 effcurve=MyEff P-TCurve=MyPvsT Daily=IRRAD_DIA TDaily=TEMP_DIA
New PVSystem.GD_c984413724a69387804a630c132934536c740b977da4b4389e48fc26b3ebcf7e phases=3 bus1=25527-11565766.1.2.3 conn=wye kv=13.8000 pf=1 pmpp=11.96 kva=11.96 irradiance=1 temperature=25 %cutin=20 %cutout=20 effcurve=MyEff P-TCurve=MyPvsT Daily=IRRAD_DIA TDaily=TEMP_DIA
New PVSystem.GD_d3e03eec64f214eb784e46127fc72110b88de9d1ac6177299b71f6ac0479cf03 phases=3 bus1=25526-9361091.1.2.3 conn=wye kv=13.8000 pf=1 pmpp=6.51 kva=6.51 irradiance=1 temperature=25 %cutin=20 %cutout=20 effcurve=MyEff P-TCurve=MyPvsT Daily=IRRAD_DIA TDaily=TEMP_DIA
New PVSystem.GD_f56422789da8090df28dbc73228dfed61ab30aef42f8235ca72ab8141fa38afb_1 phases=1 bus1=3013561-11796574.1.4 conn=wye kv=0.1100 pf=1 pmpp=0.04 kva=0.10 irradiance=1 temperature=25 %cutin=20 %cutout=20 effcurve=MyEff P-TCurve=MyPvsT Daily=IRRAD_DIA TDaily=TEMP_DIA
New PVSystem.GD_f56422789da8090df28dbc73228dfed61ab30aef42f8235ca72ab8141fa38afb_2 phases=1 bus1=3013561-11796574.2.4 conn=wye kv=0.1100 pf=1 pmpp=0.04 kva=0.10 irradiance=1 temperature=25 %cutin=20 %cutout=20 effcurve=MyEff P-TCurve=MyPvsT Daily=IRRAD_DIA TDaily=TEMP_DIA
New PVSystem.GD_af7350906dd2533c85c103167e22dd1e7ccb518308caafaa65f5dbb28ff50fc6_1 phases=1 bus1=2640098-10152044v.1.4 conn=wye kv=0.1100 pf=1 pmpp=2.50 kva=2.50 irradiance=1 temperature=25 %cutin=20 %cutout=20 effcurve=MyEff P-TCurve=MyPvsT Daily=IRRAD_DIA TDaily=TEMP_DIA
New PVSystem.GD_af7350906dd2533c85c103167e22dd1e7ccb518308caafaa65f5dbb28ff50fc6_2 phases=1 bus1=2640098-10152044v.2.4 conn=wye kv=0.1100 pf=1 pmpp=2.50 kva=2.50 irradiance=1 temperature=25 %cutin=20 %cutout=20 effcurve=MyEff P-TCurve=MyPvsT Daily=IRRAD_DIA TDaily=TEMP_DIA
New PVSystem.GD_3cefeb7659a041e2010d3f5b2c3058a20ea023c9687978437aa9328bc409b50f_1 phases=1 bus1=3013558-11796571.1.4 conn=wye kv=0.1270 pf=1 pmpp=1.12 kva=1.12 irradiance=1 temperature=25 %cutin=20 %cutout=20 effcurve=MyEff P-TCurve=MyPvsT Daily=IRRAD_DIA TDaily=TEMP_DIA
New PVSystem.GD_3cefeb7659a041e2010d3f5b2c3058a20ea023c9687978437aa9328bc409b50f_2 phases=1 bus1=3013558-11796571.2.4 conn=wye kv=0.1270 pf=1 pmpp=1.12 kva=1.12 irradiance=1 temperature=25 %cutin=20 %cutout=20 effcurve=MyEff P-TCurve=MyPvsT Daily=IRRAD_DIA TDaily=TEMP_DIA
New PVSystem.GD_3cefeb7659a041e2010d3f5b2c3058a20ea023c9687978437aa9328bc409b50f_3 phases=1 bus1=3013558-11796571.3.4 conn=wye kv=0.1270 pf=1 pmpp=1.12 kva=1.12 irradiance=1 temperature=25 %cutin=20 %cutout=20 effcurve=MyEff P-TCurve=MyPvsT Daily=IRRAD_DIA TDaily=TEMP_DIA
New PVSystem.GD_793d004e280c0ab00a1e9ada4c113f20990095b27b1554a7ce79148d62c17528_1 phases=1 bus1=3013558-11796571.1.4 conn=wye kv=0.1270 pf=1 pmpp=1.93 kva=1.93 irradiance=1 temperature=25 %cutin=20 %cutout=20 effcurve=MyEff P-TCurve=MyPvsT Daily=IRRAD_DIA TDaily=TEMP_DIA
New PVSystem.GD_793d004e280c0ab00a1e9ada4c113f20990095b27b1554a7ce79148d62c17528_2 phases=1 bus1=3013558-11796571.2.4 conn=wye kv=0.1270 pf=1 pmpp=1.93 kva=1.93 irradiance=1 temperature=25 %cutin=20 %cutout=20 effcurve=MyEff P-TCurve=MyPvsT Daily=IRRAD_DIA TDaily=TEMP_DIA
New PVSystem.GD_793d004e280c0ab00a1e9ada4c113f20990095b27b1554a7ce79148d62c17528_3 phases=1 bus1=3013558-11796571.3.4 conn=wye kv=0.1270 pf=1 pmpp=1.93 kva=1.93 irradiance=1 temperature=25 %cutin=20 %cutout=20 effcurve=MyEff P-TCurve=MyPvsT Daily=IRRAD_DIA TDaily=TEMP_DIA
New PVSystem.GD_2f045cad34499ceba712b94ffd89e7bce9b63aef74fc57327a73bdfbba501f3b_1 phases=1 bus1=2640495-10149419.1.4 conn=wye kv=0.1270 pf=1 pmpp=0.42 kva=0.42 irradiance=1 temperature=25 %cutin=20 %cutout=20 effcurve=MyEff P-TCurve=MyPvsT Daily=IRRAD_DIA TDaily=TEMP_DIA
New PVSystem.GD_2f045cad34499ceba712b94ffd89e7bce9b63aef74fc57327a73bdfbba501f3b_2 phases=1 bus1=2640495-10149419.2.4 conn=wye kv=0.1270 pf=1 pmpp=0.42 kva=0.42 irradiance=1 temperature=25 %cutin=20 %cutout=20 effcurve=MyEff P-TCurve=MyPvsT Daily=IRRAD_DIA TDaily=TEMP_DIA
New PVSystem.GD_2f045cad34499ceba712b94ffd89e7bce9b63aef74fc57327a73bdfbba501f3b_3 phases=1 bus1=2640495-10149419.3.4 conn=wye kv=0.1270 pf=1 pmpp=0.42 kva=0.42 irradiance=1 temperature=25 %cutin=20 %cutout=20 effcurve=MyEff P-TCurve=MyPvsT Daily=IRRAD_DIA TDaily=TEMP_DIA
New PVSystem.GD_3c85bc02ee4c4a11f3bbff8dc366472cab3696b852876d50555116d9daa0ee84_1 phases=1 bus1=2640495-10149419.1.4 conn=wye kv=0.1270 pf=1 pmpp=1.63 kva=1.63 irradiance=1 temperature=25 %cutin=20 %cutout=20 effcurve=MyEff P-TCurve=MyPvsT Daily=IRRAD_DIA TDaily=TEMP_DIA
New PVSystem.GD_3c85bc02ee4c4a11f3bbff8dc366472cab3696b852876d50555116d9daa0ee84_2 phases=1 bus1=2640495-10149419.2.4 conn=wye kv=0.1270 pf=1 pmpp=1.63 kva=1.63 irradiance=1 temperature=25 %cutin=20 %cutout=20 effcurve=MyEff P-TCurve=MyPvsT Daily=IRRAD_DIA TDaily=TEMP_DIA
New PVSystem.GD_3c85bc02ee4c4a11f3bbff8dc366472cab3696b852876d50555116d9daa0ee84_3 phases=1 bus1=2640495-10149419.3.4 conn=wye kv=0.1270 pf=1 pmpp=1.63 kva=1.63 irradiance=1 temperature=25 %cutin=20 %cutout=20 effcurve=MyEff P-TCurve=MyPvsT Daily=IRRAD_DIA TDaily=TEMP_DIA
New PVSystem.GD_32cc3e06738e7111622d9555ee1183c3111baae776c77e209a42b7f0ba1e9d26_1 phases=1 bus1=2640495-10149419.1.4 conn=wye kv=0.1270 pf=1 pmpp=1.74 kva=1.74 irradiance=1 temperature=25 %cutin=20 %cutout=20 effcurve=MyEff P-TCurve=MyPvsT Daily=IRRAD_DIA TDaily=TEMP_DIA
New PVSystem.GD_32cc3e06738e7111622d9555ee1183c3111baae776c77e209a42b7f0ba1e9d26_2 phases=1 bus1=2640495-10149419.2.4 conn=wye kv=0.1270 pf=1 pmpp=1.74 kva=1.74 irradiance=1 temperature=25 %cutin=20 %cutout=20 effcurve=MyEff P-TCurve=MyPvsT Daily=IRRAD_DIA TDaily=TEMP_DIA
New PVSystem.GD_32cc3e06738e7111622d9555ee1183c3111baae776c77e209a42b7f0ba1e9d26_3 phases=1 bus1=2640495-10149419.3.4 conn=wye kv=0.1270 pf=1 pmpp=1.74 kva=1.74 irradiance=1 temperature=25 %cutin=20 %cutout=20 effcurve=MyEff P-TCurve=MyPvsT Daily=IRRAD_DIA TDaily=TEMP_DIA
New PVSystem.GD_eb772838c51a53313b1cab0c5dfaa9b4a5070e9e0fd6a29e6d5d53d27ba782ec_1 phases=1 bus1=2640495-10149419.1.4 conn=wye kv=0.1270 pf=1 pmpp=1.33 kva=1.33 irradiance=1 temperature=25 %cutin=20 %cutout=20 effcurve=MyEff P-TCurve=MyPvsT Daily=IRRAD_DIA TDaily=TEMP_DIA
New PVSystem.GD_eb772838c51a53313b1cab0c5dfaa9b4a5070e9e0fd6a29e6d5d53d27ba782ec_2 phases=1 bus1=2640495-10149419.2.4 conn=wye kv=0.1270 pf=1 pmpp=1.33 kva=1.33 irradiance=1 temperature=25 %cutin=20 %cutout=20 effcurve=MyEff P-TCurve=MyPvsT Daily=IRRAD_DIA TDaily=TEMP_DIA
New PVSystem.GD_eb772838c51a53313b1cab0c5dfaa9b4a5070e9e0fd6a29e6d5d53d27ba782ec_3 phases=1 bus1=2640495-10149419.3.4 conn=wye kv=0.1270 pf=1 pmpp=1.33 kva=1.33 irradiance=1 temperature=25 %cutin=20 %cutout=20 effcurve=MyEff P-TCurve=MyPvsT Daily=IRRAD_DIA TDaily=TEMP_DIA
New PVSystem.GD_9df60a89608b1d1923a8c85ea15a07f47658a211861063f1e7ae62dc794bdf2e_1 phases=1 bus1=2640495-10149419.1.4 conn=wye kv=0.1270 pf=1 pmpp=1.80 kva=1.80 irradiance=1 temperature=25 %cutin=20 %cutout=20 effcurve=MyEff P-TCurve=MyPvsT Daily=IRRAD_DIA TDaily=TEMP_DIA
New PVSystem.GD_9df60a89608b1d1923a8c85ea15a07f47658a211861063f1e7ae62dc794bdf2e_2 phases=1 bus1=2640495-10149419.2.4 conn=wye kv=0.1270 pf=1 pmpp=1.80 kva=1.80 irradiance=1 temperature=25 %cutin=20 %cutout=20 effcurve=MyEff P-TCurve=MyPvsT Daily=IRRAD_DIA TDaily=TEMP_DIA
New PVSystem.GD_9df60a89608b1d1923a8c85ea15a07f47658a211861063f1e7ae62dc794bdf2e_3 phases=1 bus1=2640495-10149419.3.4 conn=wye kv=0.1270 pf=1 pmpp=1.80 kva=1.80 irradiance=1 temperature=25 %cutin=20 %cutout=20 effcurve=MyEff P-TCurve=MyPvsT Daily=IRRAD_DIA TDaily=TEMP_DIA
New PVSystem.GD_1e0b3ee1969fcdbb9c025e6c8dcba7ddd02c0a974d8a84e8be00870a58cdb7e6_1 phases=1 bus1=2486956-9363732.1.4 conn=wye kv=0.1270 pf=1 pmpp=0.87 kva=0.87 irradiance=1 temperature=25 %cutin=20 %cutout=20 effcurve=MyEff P-TCurve=MyPvsT Daily=IRRAD_DIA TDaily=TEMP_DIA
New PVSystem.GD_1e0b3ee1969fcdbb9c025e6c8dcba7ddd02c0a974d8a84e8be00870a58cdb7e6_2 phases=1 bus1=2486956-9363732.2.4 conn=wye kv=0.1270 pf=1 pmpp=0.87 kva=0.87 irradiance=1 temperature=25 %cutin=20 %cutout=20 effcurve=MyEff P-TCurve=MyPvsT Daily=IRRAD_DIA TDaily=TEMP_DIA
New PVSystem.GD_1e0b3ee1969fcdbb9c025e6c8dcba7ddd02c0a974d8a84e8be00870a58cdb7e6_3 phases=1 bus1=2486956-9363732.3.4 conn=wye kv=0.1270 pf=1 pmpp=0.87 kva=0.87 irradiance=1 temperature=25 %cutin=20 %cutout=20 effcurve=MyEff P-TCurve=MyPvsT Daily=IRRAD_DIA TDaily=TEMP_DIA
New PVSystem.GD_3bbb266ca47cd34d1f3d288124f734bcc480876d5913196b70abb34dba98789a_1 phases=1 bus1=2486956-9363732.1.4 conn=wye kv=0.1270 pf=1 pmpp=0.31 kva=0.31 irradiance=1 temperature=25 %cutin=20 %cutout=20 effcurve=MyEff P-TCurve=MyPvsT Daily=IRRAD_DIA TDaily=TEMP_DIA
New PVSystem.GD_3bbb266ca47cd34d1f3d288124f734bcc480876d5913196b70abb34dba98789a_2 phases=1 bus1=2486956-9363732.2.4 conn=wye kv=0.1270 pf=1 pmpp=0.31 kva=0.31 irradiance=1 temperature=25 %cutin=20 %cutout=20 effcurve=MyEff P-TCurve=MyPvsT Daily=IRRAD_DIA TDaily=TEMP_DIA
New PVSystem.GD_3bbb266ca47cd34d1f3d288124f734bcc480876d5913196b70abb34dba98789a_3 phases=1 bus1=2486956-9363732.3.4 conn=wye kv=0.1270 pf=1 pmpp=0.31 kva=0.31 irradiance=1 temperature=25 %cutin=20 %cutout=20 effcurve=MyEff P-TCurve=MyPvsT Daily=IRRAD_DIA TDaily=TEMP_DIA
New PVSystem.GD_3ab08154ccf843e43ec40cc171f402e4e8d006b29b71634c073a2a58ec2bf37c_1 phases=1 bus1=2486696-9363223.1.4 conn=wye kv=0.1270 pf=1 pmpp=0.60 kva=0.60 irradiance=1 temperature=25 %cutin=20 %cutout=20 effcurve=MyEff P-TCurve=MyPvsT Daily=IRRAD_DIA TDaily=TEMP_DIA
New PVSystem.GD_3ab08154ccf843e43ec40cc171f402e4e8d006b29b71634c073a2a58ec2bf37c_2 phases=1 bus1=2486696-9363223.2.4 conn=wye kv=0.1270 pf=1 pmpp=0.60 kva=0.60 irradiance=1 temperature=25 %cutin=20 %cutout=20 effcurve=MyEff P-TCurve=MyPvsT Daily=IRRAD_DIA TDaily=TEMP_DIA
New PVSystem.GD_3ab08154ccf843e43ec40cc171f402e4e8d006b29b71634c073a2a58ec2bf37c_3 phases=1 bus1=2486696-9363223.3.4 conn=wye kv=0.1270 pf=1 pmpp=0.60 kva=0.60 irradiance=1 temperature=25 %cutin=20 %cutout=20 effcurve=MyEff P-TCurve=MyPvsT Daily=IRRAD_DIA TDaily=TEMP_DIA
New PVSystem.GD_e0bc9489e261f20e562319b64bc3a57e54410ecf2fbee336fc078e8b5a89fe18_1 phases=1 bus1=2434845-9044276.1.4 conn=wye kv=0.1100 pf=1 pmpp=0.29 kva=0.29 irradiance=1 temperature=25 %cutin=20 %cutout=20 effcurve=MyEff P-TCurve=MyPvsT Daily=IRRAD_DIA TDaily=TEMP_DIA
New PVSystem.GD_e0bc9489e261f20e562319b64bc3a57e54410ecf2fbee336fc078e8b5a89fe18_2 phases=1 bus1=2434845-9044276.2.4 conn=wye kv=0.1100 pf=1 pmpp=0.29 kva=0.29 irradiance=1 temperature=25 %cutin=20 %cutout=20 effcurve=MyEff P-TCurve=MyPvsT Daily=IRRAD_DIA TDaily=TEMP_DIA
New PVSystem.GD_13519fcb0d04e8722ca6e5d7c1355faee8f41de04fea4196558774702805054b_1 phases=1 bus1=2639597-10146527v.1.4 conn=wye kv=0.1100 pf=1 pmpp=0.96 kva=0.96 irradiance=1 temperature=25 %cutin=20 %cutout=20 effcurve=MyEff P-TCurve=MyPvsT Daily=IRRAD_DIA TDaily=TEMP_DIA
New PVSystem.GD_13519fcb0d04e8722ca6e5d7c1355faee8f41de04fea4196558774702805054b_2 phases=1 bus1=2639597-10146527v.2.4 conn=wye kv=0.1100 pf=1 pmpp=0.96 kva=0.96 irradiance=1 temperature=25 %cutin=20 %cutout=20 effcurve=MyEff P-TCurve=MyPvsT Daily=IRRAD_DIA TDaily=TEMP_DIA
New PVSystem.GD_28884abe0c366bdf74c7fdd026e30783c89d4cb33499786af49c44cfcdaeef87_1 phases=1 bus1=2486575-9361658.1.4 conn=wye kv=0.1270 pf=1 pmpp=2.18 kva=2.18 irradiance=1 temperature=25 %cutin=20 %cutout=20 effcurve=MyEff P-TCurve=MyPvsT Daily=IRRAD_DIA TDaily=TEMP_DIA
New PVSystem.GD_28884abe0c366bdf74c7fdd026e30783c89d4cb33499786af49c44cfcdaeef87_2 phases=1 bus1=2486575-9361658.2.4 conn=wye kv=0.1270 pf=1 pmpp=2.18 kva=2.18 irradiance=1 temperature=25 %cutin=20 %cutout=20 effcurve=MyEff P-TCurve=MyPvsT Daily=IRRAD_DIA TDaily=TEMP_DIA
New PVSystem.GD_28884abe0c366bdf74c7fdd026e30783c89d4cb33499786af49c44cfcdaeef87_3 phases=1 bus1=2486575-9361658.3.4 conn=wye kv=0.1270 pf=1 pmpp=2.18 kva=2.18 irradiance=1 temperature=25 %cutin=20 %cutout=20 effcurve=MyEff P-TCurve=MyPvsT Daily=IRRAD_DIA TDaily=TEMP_DIA
New PVSystem.GD_61b8b6adcf486931ea6505012a7f0f1d826d0432bc0d445d50c4a6797bb0a45a_1 phases=1 bus1=2486575-9361658.1.4 conn=wye kv=0.1270 pf=1 pmpp=1.49 kva=1.49 irradiance=1 temperature=25 %cutin=20 %cutout=20 effcurve=MyEff P-TCurve=MyPvsT Daily=IRRAD_DIA TDaily=TEMP_DIA
New PVSystem.GD_61b8b6adcf486931ea6505012a7f0f1d826d0432bc0d445d50c4a6797bb0a45a_2 phases=1 bus1=2486575-9361658.2.4 conn=wye kv=0.1270 pf=1 pmpp=1.49 kva=1.49 irradiance=1 temperature=25 %cutin=20 %cutout=20 effcurve=MyEff P-TCurve=MyPvsT Daily=IRRAD_DIA TDaily=TEMP_DIA
New PVSystem.GD_61b8b6adcf486931ea6505012a7f0f1d826d0432bc0d445d50c4a6797bb0a45a_3 phases=1 bus1=2486575-9361658.3.4 conn=wye kv=0.1270 pf=1 pmpp=1.49 kva=1.49 irradiance=1 temperature=25 %cutin=20 %cutout=20 effcurve=MyEff P-TCurve=MyPvsT Daily=IRRAD_DIA TDaily=TEMP_DIA
New PVSystem.GD_808aa840cbb83441f2163a5d5c2dd2ebc01dcc7571a764b62f4e15825e00a5fd_1 phases=1 bus1=2486610-9361322.1.4 conn=wye kv=0.1270 pf=1 pmpp=0.88 kva=0.88 irradiance=1 temperature=25 %cutin=20 %cutout=20 effcurve=MyEff P-TCurve=MyPvsT Daily=IRRAD_DIA TDaily=TEMP_DIA
New PVSystem.GD_808aa840cbb83441f2163a5d5c2dd2ebc01dcc7571a764b62f4e15825e00a5fd_2 phases=1 bus1=2486610-9361322.2.4 conn=wye kv=0.1270 pf=1 pmpp=0.88 kva=0.88 irradiance=1 temperature=25 %cutin=20 %cutout=20 effcurve=MyEff P-TCurve=MyPvsT Daily=IRRAD_DIA TDaily=TEMP_DIA
New PVSystem.GD_808aa840cbb83441f2163a5d5c2dd2ebc01dcc7571a764b62f4e15825e00a5fd_3 phases=1 bus1=2486610-9361322.3.4 conn=wye kv=0.1270 pf=1 pmpp=0.88 kva=0.88 irradiance=1 temperature=25 %cutin=20 %cutout=20 effcurve=MyEff P-TCurve=MyPvsT Daily=IRRAD_DIA TDaily=TEMP_DIA
New PVSystem.GD_623945555eb3f96708ded4469f1200d47780f32bac62acff069aaa6f59df23e9_1 phases=1 bus1=2486610-9361322.1.4 conn=wye kv=0.1270 pf=1 pmpp=0.40 kva=0.40 irradiance=1 temperature=25 %cutin=20 %cutout=20 effcurve=MyEff P-TCurve=MyPvsT Daily=IRRAD_DIA TDaily=TEMP_DIA
New PVSystem.GD_623945555eb3f96708ded4469f1200d47780f32bac62acff069aaa6f59df23e9_2 phases=1 bus1=2486610-9361322.2.4 conn=wye kv=0.1270 pf=1 pmpp=0.40 kva=0.40 irradiance=1 temperature=25 %cutin=20 %cutout=20 effcurve=MyEff P-TCurve=MyPvsT Daily=IRRAD_DIA TDaily=TEMP_DIA
New PVSystem.GD_623945555eb3f96708ded4469f1200d47780f32bac62acff069aaa6f59df23e9_3 phases=1 bus1=2486610-9361322.3.4 conn=wye kv=0.1270 pf=1 pmpp=0.40 kva=0.40 irradiance=1 temperature=25 %cutin=20 %cutout=20 effcurve=MyEff P-TCurve=MyPvsT Daily=IRRAD_DIA TDaily=TEMP_DIA
New PVSystem.GD_38c0fffaaa1c732c9b3680a5e60e60ae8aea2fa431fa61a7d60b98d0276c3701_1 phases=1 bus1=2486610-9361322.1.4 conn=wye kv=0.1270 pf=1 pmpp=1.93 kva=1.93 irradiance=1 temperature=25 %cutin=20 %cutout=20 effcurve=MyEff P-TCurve=MyPvsT Daily=IRRAD_DIA TDaily=TEMP_DIA
New PVSystem.GD_38c0fffaaa1c732c9b3680a5e60e60ae8aea2fa431fa61a7d60b98d0276c3701_2 phases=1 bus1=2486610-9361322.2.4 conn=wye kv=0.1270 pf=1 pmpp=1.93 kva=1.93 irradiance=1 temperature=25 %cutin=20 %cutout=20 effcurve=MyEff P-TCurve=MyPvsT Daily=IRRAD_DIA TDaily=TEMP_DIA
New PVSystem.GD_38c0fffaaa1c732c9b3680a5e60e60ae8aea2fa431fa61a7d60b98d0276c3701_3 phases=1 bus1=2486610-9361322.3.4 conn=wye kv=0.1270 pf=1 pmpp=1.93 kva=1.93 irradiance=1 temperature=25 %cutin=20 %cutout=20 effcurve=MyEff P-TCurve=MyPvsT Daily=IRRAD_DIA TDaily=TEMP_DIA
New PVSystem.GD_bce04e2b39a2c02597c9e8e195ea63c92969e77b4e1021dc53fd83dac9d2c633_1 phases=1 bus1=2486610-9361322.1.4 conn=wye kv=0.1270 pf=1 pmpp=1.32 kva=1.32 irradiance=1 temperature=25 %cutin=20 %cutout=20 effcurve=MyEff P-TCurve=MyPvsT Daily=IRRAD_DIA TDaily=TEMP_DIA
New PVSystem.GD_bce04e2b39a2c02597c9e8e195ea63c92969e77b4e1021dc53fd83dac9d2c633_2 phases=1 bus1=2486610-9361322.2.4 conn=wye kv=0.1270 pf=1 pmpp=1.32 kva=1.32 irradiance=1 temperature=25 %cutin=20 %cutout=20 effcurve=MyEff P-TCurve=MyPvsT Daily=IRRAD_DIA TDaily=TEMP_DIA
New PVSystem.GD_bce04e2b39a2c02597c9e8e195ea63c92969e77b4e1021dc53fd83dac9d2c633_3 phases=1 bus1=2486610-9361322.3.4 conn=wye kv=0.1270 pf=1 pmpp=1.32 kva=1.32 irradiance=1 temperature=25 %cutin=20 %cutout=20 effcurve=MyEff P-TCurve=MyPvsT Daily=IRRAD_DIA TDaily=TEMP_DIA
New PVSystem.GD_3219f35184a11b74d8a3b96e41de65db6676698cd0aefafad267e2a957f9fa45_1 phases=1 bus1=2486610-9361322.1.4 conn=wye kv=0.1270 pf=1 pmpp=1.32 kva=1.32 irradiance=1 temperature=25 %cutin=20 %cutout=20 effcurve=MyEff P-TCurve=MyPvsT Daily=IRRAD_DIA TDaily=TEMP_DIA
New PVSystem.GD_3219f35184a11b74d8a3b96e41de65db6676698cd0aefafad267e2a957f9fa45_2 phases=1 bus1=2486610-9361322.2.4 conn=wye kv=0.1270 pf=1 pmpp=1.32 kva=1.32 irradiance=1 temperature=25 %cutin=20 %cutout=20 effcurve=MyEff P-TCurve=MyPvsT Daily=IRRAD_DIA TDaily=TEMP_DIA
New PVSystem.GD_3219f35184a11b74d8a3b96e41de65db6676698cd0aefafad267e2a957f9fa45_3 phases=1 bus1=2486610-9361322.3.4 conn=wye kv=0.1270 pf=1 pmpp=1.32 kva=1.32 irradiance=1 temperature=25 %cutin=20 %cutout=20 effcurve=MyEff P-TCurve=MyPvsT Daily=IRRAD_DIA TDaily=TEMP_DIA
New PVSystem.GD_76a5f5b82e2cdc8f29faebf3dc380b7af4ef08b19e9ef2ecf6fb390f3b203546_1 phases=1 bus1=2486599-9361171.1.4 conn=wye kv=0.1270 pf=1 pmpp=1.56 kva=1.56 irradiance=1 temperature=25 %cutin=20 %cutout=20 effcurve=MyEff P-TCurve=MyPvsT Daily=IRRAD_DIA TDaily=TEMP_DIA
New PVSystem.GD_76a5f5b82e2cdc8f29faebf3dc380b7af4ef08b19e9ef2ecf6fb390f3b203546_2 phases=1 bus1=2486599-9361171.2.4 conn=wye kv=0.1270 pf=1 pmpp=1.56 kva=1.56 irradiance=1 temperature=25 %cutin=20 %cutout=20 effcurve=MyEff P-TCurve=MyPvsT Daily=IRRAD_DIA TDaily=TEMP_DIA
New PVSystem.GD_76a5f5b82e2cdc8f29faebf3dc380b7af4ef08b19e9ef2ecf6fb390f3b203546_3 phases=1 bus1=2486599-9361171.3.4 conn=wye kv=0.1270 pf=1 pmpp=1.56 kva=1.56 irradiance=1 temperature=25 %cutin=20 %cutout=20 effcurve=MyEff P-TCurve=MyPvsT Daily=IRRAD_DIA TDaily=TEMP_DIA
New PVSystem.GD_93457691968a0176f03b5cf39f9528c6014961b29c8be9be85b11fa5e32aaf1b_1 phases=1 bus1=2486599-9361171.1.4 conn=wye kv=0.1270 pf=1 pmpp=0.75 kva=0.75 irradiance=1 temperature=25 %cutin=20 %cutout=20 effcurve=MyEff P-TCurve=MyPvsT Daily=IRRAD_DIA TDaily=TEMP_DIA
New PVSystem.GD_93457691968a0176f03b5cf39f9528c6014961b29c8be9be85b11fa5e32aaf1b_2 phases=1 bus1=2486599-9361171.2.4 conn=wye kv=0.1270 pf=1 pmpp=0.75 kva=0.75 irradiance=1 temperature=25 %cutin=20 %cutout=20 effcurve=MyEff P-TCurve=MyPvsT Daily=IRRAD_DIA TDaily=TEMP_DIA
New PVSystem.GD_93457691968a0176f03b5cf39f9528c6014961b29c8be9be85b11fa5e32aaf1b_3 phases=1 bus1=2486599-9361171.3.4 conn=wye kv=0.1270 pf=1 pmpp=0.75 kva=0.75 irradiance=1 temperature=25 %cutin=20 %cutout=20 effcurve=MyEff P-TCurve=MyPvsT Daily=IRRAD_DIA TDaily=TEMP_DIA
New PVSystem.GD_d066c8f1ce6cf7b053eba8bd883d93620831822394fe074d4c3ec3d68ac01d10_1 phases=1 bus1=2486599-9361171.1.4 conn=wye kv=0.1270 pf=1 pmpp=0.26 kva=0.26 irradiance=1 temperature=25 %cutin=20 %cutout=20 effcurve=MyEff P-TCurve=MyPvsT Daily=IRRAD_DIA TDaily=TEMP_DIA
New PVSystem.GD_d066c8f1ce6cf7b053eba8bd883d93620831822394fe074d4c3ec3d68ac01d10_2 phases=1 bus1=2486599-9361171.2.4 conn=wye kv=0.1270 pf=1 pmpp=0.26 kva=0.26 irradiance=1 temperature=25 %cutin=20 %cutout=20 effcurve=MyEff P-TCurve=MyPvsT Daily=IRRAD_DIA TDaily=TEMP_DIA
New PVSystem.GD_d066c8f1ce6cf7b053eba8bd883d93620831822394fe074d4c3ec3d68ac01d10_3 phases=1 bus1=2486599-9361171.3.4 conn=wye kv=0.1270 pf=1 pmpp=0.26 kva=0.26 irradiance=1 temperature=25 %cutin=20 %cutout=20 effcurve=MyEff P-TCurve=MyPvsT Daily=IRRAD_DIA TDaily=TEMP_DIA
New PVSystem.GD_5f088b1118e48df8b52096061f086642a2c1b8b855de826042374137e34f371c_1 phases=1 bus1=2486599-9361171.1.4 conn=wye kv=0.1270 pf=1 pmpp=1.13 kva=1.13 irradiance=1 temperature=25 %cutin=20 %cutout=20 effcurve=MyEff P-TCurve=MyPvsT Daily=IRRAD_DIA TDaily=TEMP_DIA
New PVSystem.GD_5f088b1118e48df8b52096061f086642a2c1b8b855de826042374137e34f371c_2 phases=1 bus1=2486599-9361171.2.4 conn=wye kv=0.1270 pf=1 pmpp=1.13 kva=1.13 irradiance=1 temperature=25 %cutin=20 %cutout=20 effcurve=MyEff P-TCurve=MyPvsT Daily=IRRAD_DIA TDaily=TEMP_DIA
New PVSystem.GD_5f088b1118e48df8b52096061f086642a2c1b8b855de826042374137e34f371c_3 phases=1 bus1=2486599-9361171.3.4 conn=wye kv=0.1270 pf=1 pmpp=1.13 kva=1.13 irradiance=1 temperature=25 %cutin=20 %cutout=20 effcurve=MyEff P-TCurve=MyPvsT Daily=IRRAD_DIA TDaily=TEMP_DIA
New PVSystem.GD_d3f1fc3add0def69a5da074e15c5a694a11595999028d6ed5fd64440765d795d_1 phases=1 bus1=2486923-9364809.1.4 conn=wye kv=0.1270 pf=1 pmpp=1.09 kva=1.09 irradiance=1 temperature=25 %cutin=20 %cutout=20 effcurve=MyEff P-TCurve=MyPvsT Daily=IRRAD_DIA TDaily=TEMP_DIA
New PVSystem.GD_d3f1fc3add0def69a5da074e15c5a694a11595999028d6ed5fd64440765d795d_2 phases=1 bus1=2486923-9364809.2.4 conn=wye kv=0.1270 pf=1 pmpp=1.09 kva=1.09 irradiance=1 temperature=25 %cutin=20 %cutout=20 effcurve=MyEff P-TCurve=MyPvsT Daily=IRRAD_DIA TDaily=TEMP_DIA
New PVSystem.GD_d3f1fc3add0def69a5da074e15c5a694a11595999028d6ed5fd64440765d795d_3 phases=1 bus1=2486923-9364809.3.4 conn=wye kv=0.1270 pf=1 pmpp=1.09 kva=1.09 irradiance=1 temperature=25 %cutin=20 %cutout=20 effcurve=MyEff P-TCurve=MyPvsT Daily=IRRAD_DIA TDaily=TEMP_DIA
New PVSystem.GD_a052e4c17740bd91a3d62935b3fb35497bb796ddd73ef5d0c161cb1db907a1f6_1 phases=1 bus1=2486923-9364809.1.4 conn=wye kv=0.1270 pf=1 pmpp=0.84 kva=0.84 irradiance=1 temperature=25 %cutin=20 %cutout=20 effcurve=MyEff P-TCurve=MyPvsT Daily=IRRAD_DIA TDaily=TEMP_DIA
New PVSystem.GD_a052e4c17740bd91a3d62935b3fb35497bb796ddd73ef5d0c161cb1db907a1f6_2 phases=1 bus1=2486923-9364809.2.4 conn=wye kv=0.1270 pf=1 pmpp=0.84 kva=0.84 irradiance=1 temperature=25 %cutin=20 %cutout=20 effcurve=MyEff P-TCurve=MyPvsT Daily=IRRAD_DIA TDaily=TEMP_DIA
New PVSystem.GD_a052e4c17740bd91a3d62935b3fb35497bb796ddd73ef5d0c161cb1db907a1f6_3 phases=1 bus1=2486923-9364809.3.4 conn=wye kv=0.1270 pf=1 pmpp=0.84 kva=0.84 irradiance=1 temperature=25 %cutin=20 %cutout=20 effcurve=MyEff P-TCurve=MyPvsT Daily=IRRAD_DIA TDaily=TEMP_DIA
New PVSystem.GD_8739c5fd517e8ba9fdd1c8c41903260f97480d7dbd9eda7e2c6beab8d8b64dc0_1 phases=1 bus1=2486923-9364809.1.4 conn=wye kv=0.1270 pf=1 pmpp=0.96 kva=0.96 irradiance=1 temperature=25 %cutin=20 %cutout=20 effcurve=MyEff P-TCurve=MyPvsT Daily=IRRAD_DIA TDaily=TEMP_DIA
New PVSystem.GD_8739c5fd517e8ba9fdd1c8c41903260f97480d7dbd9eda7e2c6beab8d8b64dc0_2 phases=1 bus1=2486923-9364809.2.4 conn=wye kv=0.1270 pf=1 pmpp=0.96 kva=0.96 irradiance=1 temperature=25 %cutin=20 %cutout=20 effcurve=MyEff P-TCurve=MyPvsT Daily=IRRAD_DIA TDaily=TEMP_DIA
New PVSystem.GD_8739c5fd517e8ba9fdd1c8c41903260f97480d7dbd9eda7e2c6beab8d8b64dc0_3 phases=1 bus1=2486923-9364809.3.4 conn=wye kv=0.1270 pf=1 pmpp=0.96 kva=0.96 irradiance=1 temperature=25 %cutin=20 %cutout=20 effcurve=MyEff P-TCurve=MyPvsT Daily=IRRAD_DIA TDaily=TEMP_DIA
New PVSystem.GD_7e4b8a2cde3dd70d859440b564e10dd95c032608cd2e20f17f374c17c38ca752_1 phases=1 bus1=2486923-9364809.1.4 conn=wye kv=0.1270 pf=1 pmpp=1.43 kva=1.43 irradiance=1 temperature=25 %cutin=20 %cutout=20 effcurve=MyEff P-TCurve=MyPvsT Daily=IRRAD_DIA TDaily=TEMP_DIA
New PVSystem.GD_7e4b8a2cde3dd70d859440b564e10dd95c032608cd2e20f17f374c17c38ca752_2 phases=1 bus1=2486923-9364809.2.4 conn=wye kv=0.1270 pf=1 pmpp=1.43 kva=1.43 irradiance=1 temperature=25 %cutin=20 %cutout=20 effcurve=MyEff P-TCurve=MyPvsT Daily=IRRAD_DIA TDaily=TEMP_DIA
New PVSystem.GD_7e4b8a2cde3dd70d859440b564e10dd95c032608cd2e20f17f374c17c38ca752_3 phases=1 bus1=2486923-9364809.3.4 conn=wye kv=0.1270 pf=1 pmpp=1.43 kva=1.43 irradiance=1 temperature=25 %cutin=20 %cutout=20 effcurve=MyEff P-TCurve=MyPvsT Daily=IRRAD_DIA TDaily=TEMP_DIA
New PVSystem.GD_1b6dd4c143787a73e9db3d3043d927e212caa3f130d7f847f3d4d054c85eaca0_1 phases=1 bus1=2486923-9364809.1.4 conn=wye kv=0.1270 pf=1 pmpp=0.52 kva=0.52 irradiance=1 temperature=25 %cutin=20 %cutout=20 effcurve=MyEff P-TCurve=MyPvsT Daily=IRRAD_DIA TDaily=TEMP_DIA
New PVSystem.GD_1b6dd4c143787a73e9db3d3043d927e212caa3f130d7f847f3d4d054c85eaca0_2 phases=1 bus1=2486923-9364809.2.4 conn=wye kv=0.1270 pf=1 pmpp=0.52 kva=0.52 irradiance=1 temperature=25 %cutin=20 %cutout=20 effcurve=MyEff P-TCurve=MyPvsT Daily=IRRAD_DIA TDaily=TEMP_DIA
New PVSystem.GD_1b6dd4c143787a73e9db3d3043d927e212caa3f130d7f847f3d4d054c85eaca0_3 phases=1 bus1=2486923-9364809.3.4 conn=wye kv=0.1270 pf=1 pmpp=0.52 kva=0.52 irradiance=1 temperature=25 %cutin=20 %cutout=20 effcurve=MyEff P-TCurve=MyPvsT Daily=IRRAD_DIA TDaily=TEMP_DIA
New PVSystem.GD_e430f9ee5dcef35d20a9a0f6824bae95df2ed9b8eea8a5e287652d51061090c2_1 phases=1 bus1=2486923-9364809.1.4 conn=wye kv=0.1270 pf=1 pmpp=0.90 kva=0.90 irradiance=1 temperature=25 %cutin=20 %cutout=20 effcurve=MyEff P-TCurve=MyPvsT Daily=IRRAD_DIA TDaily=TEMP_DIA
New PVSystem.GD_e430f9ee5dcef35d20a9a0f6824bae95df2ed9b8eea8a5e287652d51061090c2_2 phases=1 bus1=2486923-9364809.2.4 conn=wye kv=0.1270 pf=1 pmpp=0.90 kva=0.90 irradiance=1 temperature=25 %cutin=20 %cutout=20 effcurve=MyEff P-TCurve=MyPvsT Daily=IRRAD_DIA TDaily=TEMP_DIA
New PVSystem.GD_e430f9ee5dcef35d20a9a0f6824bae95df2ed9b8eea8a5e287652d51061090c2_3 phases=1 bus1=2486923-9364809.3.4 conn=wye kv=0.1270 pf=1 pmpp=0.90 kva=0.90 irradiance=1 temperature=25 %cutin=20 %cutout=20 effcurve=MyEff P-TCurve=MyPvsT Daily=IRRAD_DIA TDaily=TEMP_DIA
New PVSystem.GD_0872d7cfaaf91ddebca8968707cc9facdbc24b9591c43f525dc67905351ee156_1 phases=1 bus1=2486923-9364809.1.4 conn=wye kv=0.1270 pf=1 pmpp=0.72 kva=0.72 irradiance=1 temperature=25 %cutin=20 %cutout=20 effcurve=MyEff P-TCurve=MyPvsT Daily=IRRAD_DIA TDaily=TEMP_DIA
New PVSystem.GD_0872d7cfaaf91ddebca8968707cc9facdbc24b9591c43f525dc67905351ee156_2 phases=1 bus1=2486923-9364809.2.4 conn=wye kv=0.1270 pf=1 pmpp=0.72 kva=0.72 irradiance=1 temperature=25 %cutin=20 %cutout=20 effcurve=MyEff P-TCurve=MyPvsT Daily=IRRAD_DIA TDaily=TEMP_DIA
New PVSystem.GD_0872d7cfaaf91ddebca8968707cc9facdbc24b9591c43f525dc67905351ee156_3 phases=1 bus1=2486923-9364809.3.4 conn=wye kv=0.1270 pf=1 pmpp=0.72 kva=0.72 irradiance=1 temperature=25 %cutin=20 %cutout=20 effcurve=MyEff P-TCurve=MyPvsT Daily=IRRAD_DIA TDaily=TEMP_DIA
New PVSystem.GD_2d565b1234d65a12f87c3f5cd06ace0800db9c38369432dfda9978cf235d7a54_1 phases=1 bus1=2486923-9364809.1.4 conn=wye kv=0.1270 pf=1 pmpp=1.12 kva=1.12 irradiance=1 temperature=25 %cutin=20 %cutout=20 effcurve=MyEff P-TCurve=MyPvsT Daily=IRRAD_DIA TDaily=TEMP_DIA
New PVSystem.GD_2d565b1234d65a12f87c3f5cd06ace0800db9c38369432dfda9978cf235d7a54_2 phases=1 bus1=2486923-9364809.2.4 conn=wye kv=0.1270 pf=1 pmpp=1.12 kva=1.12 irradiance=1 temperature=25 %cutin=20 %cutout=20 effcurve=MyEff P-TCurve=MyPvsT Daily=IRRAD_DIA TDaily=TEMP_DIA
New PVSystem.GD_2d565b1234d65a12f87c3f5cd06ace0800db9c38369432dfda9978cf235d7a54_3 phases=1 bus1=2486923-9364809.3.4 conn=wye kv=0.1270 pf=1 pmpp=1.12 kva=1.12 irradiance=1 temperature=25 %cutin=20 %cutout=20 effcurve=MyEff P-TCurve=MyPvsT Daily=IRRAD_DIA TDaily=TEMP_DIA
New PVSystem.GD_7ed468b4c59de58531c5ca82bdaa738327913cc579acdc6b7a5ec298b943b15c_1 phases=1 bus1=2889186-11362658.1.4 conn=wye kv=0.1270 pf=1 pmpp=1.62 kva=1.62 irradiance=1 temperature=25 %cutin=20 %cutout=20 effcurve=MyEff P-TCurve=MyPvsT Daily=IRRAD_DIA TDaily=TEMP_DIA
New PVSystem.GD_7ed468b4c59de58531c5ca82bdaa738327913cc579acdc6b7a5ec298b943b15c_2 phases=1 bus1=2889186-11362658.2.4 conn=wye kv=0.1270 pf=1 pmpp=1.62 kva=1.62 irradiance=1 temperature=25 %cutin=20 %cutout=20 effcurve=MyEff P-TCurve=MyPvsT Daily=IRRAD_DIA TDaily=TEMP_DIA
New PVSystem.GD_7ed468b4c59de58531c5ca82bdaa738327913cc579acdc6b7a5ec298b943b15c_3 phases=1 bus1=2889186-11362658.3.4 conn=wye kv=0.1270 pf=1 pmpp=1.62 kva=1.62 irradiance=1 temperature=25 %cutin=20 %cutout=20 effcurve=MyEff P-TCurve=MyPvsT Daily=IRRAD_DIA TDaily=TEMP_DIA
New PVSystem.GD_5eb172be09d23f39e7dc0aba08d4ae191ef840dd92078838bb9c67876fbc898f_1 phases=1 bus1=2487032-9365210.1.4 conn=wye kv=0.1270 pf=1 pmpp=1.83 kva=1.83 irradiance=1 temperature=25 %cutin=20 %cutout=20 effcurve=MyEff P-TCurve=MyPvsT Daily=IRRAD_DIA TDaily=TEMP_DIA
New PVSystem.GD_5eb172be09d23f39e7dc0aba08d4ae191ef840dd92078838bb9c67876fbc898f_2 phases=1 bus1=2487032-9365210.2.4 conn=wye kv=0.1270 pf=1 pmpp=1.83 kva=1.83 irradiance=1 temperature=25 %cutin=20 %cutout=20 effcurve=MyEff P-TCurve=MyPvsT Daily=IRRAD_DIA TDaily=TEMP_DIA
New PVSystem.GD_5eb172be09d23f39e7dc0aba08d4ae191ef840dd92078838bb9c67876fbc898f_3 phases=1 bus1=2487032-9365210.3.4 conn=wye kv=0.1270 pf=1 pmpp=1.83 kva=1.83 irradiance=1 temperature=25 %cutin=20 %cutout=20 effcurve=MyEff P-TCurve=MyPvsT Daily=IRRAD_DIA TDaily=TEMP_DIA
New PVSystem.GD_03fc09694133cc6ab5eb955ddc2753992f037c83eabb47d20224b71df1336bf8_1 phases=1 bus1=2487032-9365210.1.4 conn=wye kv=0.1270 pf=1 pmpp=0.74 kva=0.74 irradiance=1 temperature=25 %cutin=20 %cutout=20 effcurve=MyEff P-TCurve=MyPvsT Daily=IRRAD_DIA TDaily=TEMP_DIA
New PVSystem.GD_03fc09694133cc6ab5eb955ddc2753992f037c83eabb47d20224b71df1336bf8_2 phases=1 bus1=2487032-9365210.2.4 conn=wye kv=0.1270 pf=1 pmpp=0.74 kva=0.74 irradiance=1 temperature=25 %cutin=20 %cutout=20 effcurve=MyEff P-TCurve=MyPvsT Daily=IRRAD_DIA TDaily=TEMP_DIA
New PVSystem.GD_03fc09694133cc6ab5eb955ddc2753992f037c83eabb47d20224b71df1336bf8_3 phases=1 bus1=2487032-9365210.3.4 conn=wye kv=0.1270 pf=1 pmpp=0.74 kva=0.74 irradiance=1 temperature=25 %cutin=20 %cutout=20 effcurve=MyEff P-TCurve=MyPvsT Daily=IRRAD_DIA TDaily=TEMP_DIA
New PVSystem.GD_2ce013e09ec662dff09079802b8624bbd9b13a521d72053b6cad7e57fb219b5a_1 phases=1 bus1=2487032-9365210.1.4 conn=wye kv=0.1270 pf=1 pmpp=2.67 kva=2.67 irradiance=1 temperature=25 %cutin=20 %cutout=20 effcurve=MyEff P-TCurve=MyPvsT Daily=IRRAD_DIA TDaily=TEMP_DIA
New PVSystem.GD_2ce013e09ec662dff09079802b8624bbd9b13a521d72053b6cad7e57fb219b5a_2 phases=1 bus1=2487032-9365210.2.4 conn=wye kv=0.1270 pf=1 pmpp=2.67 kva=2.67 irradiance=1 temperature=25 %cutin=20 %cutout=20 effcurve=MyEff P-TCurve=MyPvsT Daily=IRRAD_DIA TDaily=TEMP_DIA
New PVSystem.GD_2ce013e09ec662dff09079802b8624bbd9b13a521d72053b6cad7e57fb219b5a_3 phases=1 bus1=2487032-9365210.3.4 conn=wye kv=0.1270 pf=1 pmpp=2.67 kva=2.67 irradiance=1 temperature=25 %cutin=20 %cutout=20 effcurve=MyEff P-TCurve=MyPvsT Daily=IRRAD_DIA TDaily=TEMP_DIA
New PVSystem.GD_ac9456c660707ce6060450df7fec48965185de74256a81aedcb283a6b5c202ca_1 phases=1 bus1=2487032-9365210.1.4 conn=wye kv=0.1270 pf=1 pmpp=12.55 kva=12.55 irradiance=1 temperature=25 %cutin=20 %cutout=20 effcurve=MyEff P-TCurve=MyPvsT Daily=IRRAD_DIA TDaily=TEMP_DIA
New PVSystem.GD_ac9456c660707ce6060450df7fec48965185de74256a81aedcb283a6b5c202ca_2 phases=1 bus1=2487032-9365210.2.4 conn=wye kv=0.1270 pf=1 pmpp=12.55 kva=12.55 irradiance=1 temperature=25 %cutin=20 %cutout=20 effcurve=MyEff P-TCurve=MyPvsT Daily=IRRAD_DIA TDaily=TEMP_DIA
New PVSystem.GD_ac9456c660707ce6060450df7fec48965185de74256a81aedcb283a6b5c202ca_3 phases=1 bus1=2487032-9365210.3.4 conn=wye kv=0.1270 pf=1 pmpp=12.55 kva=12.55 irradiance=1 temperature=25 %cutin=20 %cutout=20 effcurve=MyEff P-TCurve=MyPvsT Daily=IRRAD_DIA TDaily=TEMP_DIA
New PVSystem.GD_e0f219de0f13ea72ec21152136bfc9678f7bd94d082a04eba7268abaa26730ed_1 phases=1 bus1=2487032-9365210.1.4 conn=wye kv=0.1270 pf=1 pmpp=0.95 kva=0.95 irradiance=1 temperature=25 %cutin=20 %cutout=20 effcurve=MyEff P-TCurve=MyPvsT Daily=IRRAD_DIA TDaily=TEMP_DIA
New PVSystem.GD_e0f219de0f13ea72ec21152136bfc9678f7bd94d082a04eba7268abaa26730ed_2 phases=1 bus1=2487032-9365210.2.4 conn=wye kv=0.1270 pf=1 pmpp=0.95 kva=0.95 irradiance=1 temperature=25 %cutin=20 %cutout=20 effcurve=MyEff P-TCurve=MyPvsT Daily=IRRAD_DIA TDaily=TEMP_DIA
New PVSystem.GD_e0f219de0f13ea72ec21152136bfc9678f7bd94d082a04eba7268abaa26730ed_3 phases=1 bus1=2487032-9365210.3.4 conn=wye kv=0.1270 pf=1 pmpp=0.95 kva=0.95 irradiance=1 temperature=25 %cutin=20 %cutout=20 effcurve=MyEff P-TCurve=MyPvsT Daily=IRRAD_DIA TDaily=TEMP_DIA
New PVSystem.GD_9c84c82358bcbcb8743e81ba2d17b8ee5e58622a3860fbf4afa73d38e26ab869_1 phases=1 bus1=2487032-9365210.1.4 conn=wye kv=0.1270 pf=1 pmpp=0.96 kva=0.96 irradiance=1 temperature=25 %cutin=20 %cutout=20 effcurve=MyEff P-TCurve=MyPvsT Daily=IRRAD_DIA TDaily=TEMP_DIA
New PVSystem.GD_9c84c82358bcbcb8743e81ba2d17b8ee5e58622a3860fbf4afa73d38e26ab869_2 phases=1 bus1=2487032-9365210.2.4 conn=wye kv=0.1270 pf=1 pmpp=0.96 kva=0.96 irradiance=1 temperature=25 %cutin=20 %cutout=20 effcurve=MyEff P-TCurve=MyPvsT Daily=IRRAD_DIA TDaily=TEMP_DIA
New PVSystem.GD_9c84c82358bcbcb8743e81ba2d17b8ee5e58622a3860fbf4afa73d38e26ab869_3 phases=1 bus1=2487032-9365210.3.4 conn=wye kv=0.1270 pf=1 pmpp=0.96 kva=0.96 irradiance=1 temperature=25 %cutin=20 %cutout=20 effcurve=MyEff P-TCurve=MyPvsT Daily=IRRAD_DIA TDaily=TEMP_DIA
New PVSystem.GD_ad580e614783d6d824483d299a5e49136f00a4e8ee8435830029dbc4db588969_1 phases=1 bus1=2487032-9365210.1.4 conn=wye kv=0.1270 pf=1 pmpp=0.52 kva=0.52 irradiance=1 temperature=25 %cutin=20 %cutout=20 effcurve=MyEff P-TCurve=MyPvsT Daily=IRRAD_DIA TDaily=TEMP_DIA
New PVSystem.GD_ad580e614783d6d824483d299a5e49136f00a4e8ee8435830029dbc4db588969_2 phases=1 bus1=2487032-9365210.2.4 conn=wye kv=0.1270 pf=1 pmpp=0.52 kva=0.52 irradiance=1 temperature=25 %cutin=20 %cutout=20 effcurve=MyEff P-TCurve=MyPvsT Daily=IRRAD_DIA TDaily=TEMP_DIA
New PVSystem.GD_ad580e614783d6d824483d299a5e49136f00a4e8ee8435830029dbc4db588969_3 phases=1 bus1=2487032-9365210.3.4 conn=wye kv=0.1270 pf=1 pmpp=0.52 kva=0.52 irradiance=1 temperature=25 %cutin=20 %cutout=20 effcurve=MyEff P-TCurve=MyPvsT Daily=IRRAD_DIA TDaily=TEMP_DIA
New PVSystem.GD_9c474ca39d8e7ccce511d806cdf94471cfa06548d26ab5fd0e8c269ed4803b06_1 phases=1 bus1=2487032-9365210.1.4 conn=wye kv=0.1270 pf=1 pmpp=2.05 kva=2.05 irradiance=1 temperature=25 %cutin=20 %cutout=20 effcurve=MyEff P-TCurve=MyPvsT Daily=IRRAD_DIA TDaily=TEMP_DIA
New PVSystem.GD_9c474ca39d8e7ccce511d806cdf94471cfa06548d26ab5fd0e8c269ed4803b06_2 phases=1 bus1=2487032-9365210.2.4 conn=wye kv=0.1270 pf=1 pmpp=2.05 kva=2.05 irradiance=1 temperature=25 %cutin=20 %cutout=20 effcurve=MyEff P-TCurve=MyPvsT Daily=IRRAD_DIA TDaily=TEMP_DIA
New PVSystem.GD_9c474ca39d8e7ccce511d806cdf94471cfa06548d26ab5fd0e8c269ed4803b06_3 phases=1 bus1=2487032-9365210.3.4 conn=wye kv=0.1270 pf=1 pmpp=2.05 kva=2.05 irradiance=1 temperature=25 %cutin=20 %cutout=20 effcurve=MyEff P-TCurve=MyPvsT Daily=IRRAD_DIA TDaily=TEMP_DIA
New PVSystem.GD_993a6d5326b001ac57c678372efcea28504aae90df78500bd22a717df26b5af0_1 phases=1 bus1=2487032-9365210.1.4 conn=wye kv=0.1270 pf=1 pmpp=0.41 kva=0.41 irradiance=1 temperature=25 %cutin=20 %cutout=20 effcurve=MyEff P-TCurve=MyPvsT Daily=IRRAD_DIA TDaily=TEMP_DIA
New PVSystem.GD_993a6d5326b001ac57c678372efcea28504aae90df78500bd22a717df26b5af0_2 phases=1 bus1=2487032-9365210.2.4 conn=wye kv=0.1270 pf=1 pmpp=0.41 kva=0.41 irradiance=1 temperature=25 %cutin=20 %cutout=20 effcurve=MyEff P-TCurve=MyPvsT Daily=IRRAD_DIA TDaily=TEMP_DIA
New PVSystem.GD_993a6d5326b001ac57c678372efcea28504aae90df78500bd22a717df26b5af0_3 phases=1 bus1=2487032-9365210.3.4 conn=wye kv=0.1270 pf=1 pmpp=0.41 kva=0.41 irradiance=1 temperature=25 %cutin=20 %cutout=20 effcurve=MyEff P-TCurve=MyPvsT Daily=IRRAD_DIA TDaily=TEMP_DIA
New PVSystem.GD_5a1ffdeb9fcf6890153da077d7a50aabeec10782c0e652bc5b65d54e87c7bca4_1 phases=1 bus1=2487032-9365210.1.4 conn=wye kv=0.1270 pf=1 pmpp=0.91 kva=0.91 irradiance=1 temperature=25 %cutin=20 %cutout=20 effcurve=MyEff P-TCurve=MyPvsT Daily=IRRAD_DIA TDaily=TEMP_DIA
New PVSystem.GD_5a1ffdeb9fcf6890153da077d7a50aabeec10782c0e652bc5b65d54e87c7bca4_2 phases=1 bus1=2487032-9365210.2.4 conn=wye kv=0.1270 pf=1 pmpp=0.91 kva=0.91 irradiance=1 temperature=25 %cutin=20 %cutout=20 effcurve=MyEff P-TCurve=MyPvsT Daily=IRRAD_DIA TDaily=TEMP_DIA
New PVSystem.GD_5a1ffdeb9fcf6890153da077d7a50aabeec10782c0e652bc5b65d54e87c7bca4_3 phases=1 bus1=2487032-9365210.3.4 conn=wye kv=0.1270 pf=1 pmpp=0.91 kva=0.91 irradiance=1 temperature=25 %cutin=20 %cutout=20 effcurve=MyEff P-TCurve=MyPvsT Daily=IRRAD_DIA TDaily=TEMP_DIA
New PVSystem.GD_4c6c97b06892d45b13c86e372ed6df276a166215e40faf2dc7e7d11db75a5120_1 phases=1 bus1=2487032-9365210.1.4 conn=wye kv=0.1270 pf=1 pmpp=0.85 kva=0.85 irradiance=1 temperature=25 %cutin=20 %cutout=20 effcurve=MyEff P-TCurve=MyPvsT Daily=IRRAD_DIA TDaily=TEMP_DIA
New PVSystem.GD_4c6c97b06892d45b13c86e372ed6df276a166215e40faf2dc7e7d11db75a5120_2 phases=1 bus1=2487032-9365210.2.4 conn=wye kv=0.1270 pf=1 pmpp=0.85 kva=0.85 irradiance=1 temperature=25 %cutin=20 %cutout=20 effcurve=MyEff P-TCurve=MyPvsT Daily=IRRAD_DIA TDaily=TEMP_DIA
New PVSystem.GD_4c6c97b06892d45b13c86e372ed6df276a166215e40faf2dc7e7d11db75a5120_3 phases=1 bus1=2487032-9365210.3.4 conn=wye kv=0.1270 pf=1 pmpp=0.85 kva=0.85 irradiance=1 temperature=25 %cutin=20 %cutout=20 effcurve=MyEff P-TCurve=MyPvsT Daily=IRRAD_DIA TDaily=TEMP_DIA
New PVSystem.GD_8117e84dbdcc33428c23651c95eb3864a0325da62ac893cfee5436ceaaad957d_1 phases=1 bus1=2487032-9365210.1.4 conn=wye kv=0.1270 pf=1 pmpp=2.08 kva=2.08 irradiance=1 temperature=25 %cutin=20 %cutout=20 effcurve=MyEff P-TCurve=MyPvsT Daily=IRRAD_DIA TDaily=TEMP_DIA
New PVSystem.GD_8117e84dbdcc33428c23651c95eb3864a0325da62ac893cfee5436ceaaad957d_2 phases=1 bus1=2487032-9365210.2.4 conn=wye kv=0.1270 pf=1 pmpp=2.08 kva=2.08 irradiance=1 temperature=25 %cutin=20 %cutout=20 effcurve=MyEff P-TCurve=MyPvsT Daily=IRRAD_DIA TDaily=TEMP_DIA
New PVSystem.GD_8117e84dbdcc33428c23651c95eb3864a0325da62ac893cfee5436ceaaad957d_3 phases=1 bus1=2487032-9365210.3.4 conn=wye kv=0.1270 pf=1 pmpp=2.08 kva=2.08 irradiance=1 temperature=25 %cutin=20 %cutout=20 effcurve=MyEff P-TCurve=MyPvsT Daily=IRRAD_DIA TDaily=TEMP_DIA
New PVSystem.GD_b760cab78eb97bd62c02e60c867665df7d87fd5706d28cdd0cfd34662512b230_1 phases=1 bus1=2639864-10148359v.1.4 conn=wye kv=0.1270 pf=1 pmpp=3.77 kva=3.77 irradiance=1 temperature=25 %cutin=20 %cutout=20 effcurve=MyEff P-TCurve=MyPvsT Daily=IRRAD_DIA TDaily=TEMP_DIA
New PVSystem.GD_b760cab78eb97bd62c02e60c867665df7d87fd5706d28cdd0cfd34662512b230_2 phases=1 bus1=2639864-10148359v.2.4 conn=wye kv=0.1270 pf=1 pmpp=3.77 kva=3.77 irradiance=1 temperature=25 %cutin=20 %cutout=20 effcurve=MyEff P-TCurve=MyPvsT Daily=IRRAD_DIA TDaily=TEMP_DIA
New PVSystem.GD_b760cab78eb97bd62c02e60c867665df7d87fd5706d28cdd0cfd34662512b230_3 phases=1 bus1=2639864-10148359v.3.4 conn=wye kv=0.1270 pf=1 pmpp=3.77 kva=3.77 irradiance=1 temperature=25 %cutin=20 %cutout=20 effcurve=MyEff P-TCurve=MyPvsT Daily=IRRAD_DIA TDaily=TEMP_DIA
New PVSystem.GD_b0c7189ceab0593169e0c338d6e3fef4707f96738056e82574c200c51b26f7f8_1 phases=1 bus1=2639724-10153834.1.4 conn=wye kv=0.1270 pf=1 pmpp=0.14 kva=0.14 irradiance=1 temperature=25 %cutin=20 %cutout=20 effcurve=MyEff P-TCurve=MyPvsT Daily=IRRAD_DIA TDaily=TEMP_DIA
New PVSystem.GD_b0c7189ceab0593169e0c338d6e3fef4707f96738056e82574c200c51b26f7f8_2 phases=1 bus1=2639724-10153834.2.4 conn=wye kv=0.1270 pf=1 pmpp=0.14 kva=0.14 irradiance=1 temperature=25 %cutin=20 %cutout=20 effcurve=MyEff P-TCurve=MyPvsT Daily=IRRAD_DIA TDaily=TEMP_DIA
New PVSystem.GD_b0c7189ceab0593169e0c338d6e3fef4707f96738056e82574c200c51b26f7f8_3 phases=1 bus1=2639724-10153834.3.4 conn=wye kv=0.1270 pf=1 pmpp=0.14 kva=0.14 irradiance=1 temperature=25 %cutin=20 %cutout=20 effcurve=MyEff P-TCurve=MyPvsT Daily=IRRAD_DIA TDaily=TEMP_DIA
New PVSystem.GD_a34e732b95b20736262f3206a1cf216f016e986e8e89a31f1f4966f82a50b77f_1 phases=1 bus1=2639724-10153834.1.4 conn=wye kv=0.1270 pf=1 pmpp=1.14 kva=1.14 irradiance=1 temperature=25 %cutin=20 %cutout=20 effcurve=MyEff P-TCurve=MyPvsT Daily=IRRAD_DIA TDaily=TEMP_DIA
New PVSystem.GD_a34e732b95b20736262f3206a1cf216f016e986e8e89a31f1f4966f82a50b77f_2 phases=1 bus1=2639724-10153834.2.4 conn=wye kv=0.1270 pf=1 pmpp=1.14 kva=1.14 irradiance=1 temperature=25 %cutin=20 %cutout=20 effcurve=MyEff P-TCurve=MyPvsT Daily=IRRAD_DIA TDaily=TEMP_DIA
New PVSystem.GD_a34e732b95b20736262f3206a1cf216f016e986e8e89a31f1f4966f82a50b77f_3 phases=1 bus1=2639724-10153834.3.4 conn=wye kv=0.1270 pf=1 pmpp=1.14 kva=1.14 irradiance=1 temperature=25 %cutin=20 %cutout=20 effcurve=MyEff P-TCurve=MyPvsT Daily=IRRAD_DIA TDaily=TEMP_DIA
New PVSystem.GD_c4ad2eaad126e08362d58016eaadb6f072f5f26d64b06c4d5a68dcd00c4b43e0_1 phases=1 bus1=2639724-10153834.1.4 conn=wye kv=0.1270 pf=1 pmpp=1.41 kva=1.41 irradiance=1 temperature=25 %cutin=20 %cutout=20 effcurve=MyEff P-TCurve=MyPvsT Daily=IRRAD_DIA TDaily=TEMP_DIA
New PVSystem.GD_c4ad2eaad126e08362d58016eaadb6f072f5f26d64b06c4d5a68dcd00c4b43e0_2 phases=1 bus1=2639724-10153834.2.4 conn=wye kv=0.1270 pf=1 pmpp=1.41 kva=1.41 irradiance=1 temperature=25 %cutin=20 %cutout=20 effcurve=MyEff P-TCurve=MyPvsT Daily=IRRAD_DIA TDaily=TEMP_DIA
New PVSystem.GD_c4ad2eaad126e08362d58016eaadb6f072f5f26d64b06c4d5a68dcd00c4b43e0_3 phases=1 bus1=2639724-10153834.3.4 conn=wye kv=0.1270 pf=1 pmpp=1.41 kva=1.41 irradiance=1 temperature=25 %cutin=20 %cutout=20 effcurve=MyEff P-TCurve=MyPvsT Daily=IRRAD_DIA TDaily=TEMP_DIA
New PVSystem.GD_85cb8ff73030b3d629a92274c855f3a164b1d373901d96924cc6cb1f80e6cd24_1 phases=1 bus1=2639724-10153834.1.4 conn=wye kv=0.1270 pf=1 pmpp=0.84 kva=0.84 irradiance=1 temperature=25 %cutin=20 %cutout=20 effcurve=MyEff P-TCurve=MyPvsT Daily=IRRAD_DIA TDaily=TEMP_DIA
New PVSystem.GD_85cb8ff73030b3d629a92274c855f3a164b1d373901d96924cc6cb1f80e6cd24_2 phases=1 bus1=2639724-10153834.2.4 conn=wye kv=0.1270 pf=1 pmpp=0.84 kva=0.84 irradiance=1 temperature=25 %cutin=20 %cutout=20 effcurve=MyEff P-TCurve=MyPvsT Daily=IRRAD_DIA TDaily=TEMP_DIA
New PVSystem.GD_85cb8ff73030b3d629a92274c855f3a164b1d373901d96924cc6cb1f80e6cd24_3 phases=1 bus1=2639724-10153834.3.4 conn=wye kv=0.1270 pf=1 pmpp=0.84 kva=0.84 irradiance=1 temperature=25 %cutin=20 %cutout=20 effcurve=MyEff P-TCurve=MyPvsT Daily=IRRAD_DIA TDaily=TEMP_DIA
New PVSystem.GD_9a1d16fbd2a7931f76fc97cd93bcc160800601485b8a919ceae9ae6288c8658a_1 phases=1 bus1=2640528-10146530.1.4 conn=wye kv=0.1270 pf=1 pmpp=2.30 kva=2.30 irradiance=1 temperature=25 %cutin=20 %cutout=20 effcurve=MyEff P-TCurve=MyPvsT Daily=IRRAD_DIA TDaily=TEMP_DIA
New PVSystem.GD_9a1d16fbd2a7931f76fc97cd93bcc160800601485b8a919ceae9ae6288c8658a_2 phases=1 bus1=2640528-10146530.2.4 conn=wye kv=0.1270 pf=1 pmpp=2.30 kva=2.30 irradiance=1 temperature=25 %cutin=20 %cutout=20 effcurve=MyEff P-TCurve=MyPvsT Daily=IRRAD_DIA TDaily=TEMP_DIA
New PVSystem.GD_9a1d16fbd2a7931f76fc97cd93bcc160800601485b8a919ceae9ae6288c8658a_3 phases=1 bus1=2640528-10146530.3.4 conn=wye kv=0.1270 pf=1 pmpp=2.30 kva=2.30 irradiance=1 temperature=25 %cutin=20 %cutout=20 effcurve=MyEff P-TCurve=MyPvsT Daily=IRRAD_DIA TDaily=TEMP_DIA
New PVSystem.GD_6e6c88b66c431be38a0e5099eb3b384d36989488270a57e99869632bfce7ea7f_1 phases=1 bus1=3146428-12633212.1.4 conn=wye kv=0.1270 pf=1 pmpp=3.02 kva=3.02 irradiance=1 temperature=25 %cutin=20 %cutout=20 effcurve=MyEff P-TCurve=MyPvsT Daily=IRRAD_DIA TDaily=TEMP_DIA
New PVSystem.GD_6e6c88b66c431be38a0e5099eb3b384d36989488270a57e99869632bfce7ea7f_2 phases=1 bus1=3146428-12633212.2.4 conn=wye kv=0.1270 pf=1 pmpp=3.02 kva=3.02 irradiance=1 temperature=25 %cutin=20 %cutout=20 effcurve=MyEff P-TCurve=MyPvsT Daily=IRRAD_DIA TDaily=TEMP_DIA
New PVSystem.GD_6e6c88b66c431be38a0e5099eb3b384d36989488270a57e99869632bfce7ea7f_3 phases=1 bus1=3146428-12633212.3.4 conn=wye kv=0.1270 pf=1 pmpp=3.02 kva=3.02 irradiance=1 temperature=25 %cutin=20 %cutout=20 effcurve=MyEff P-TCurve=MyPvsT Daily=IRRAD_DIA TDaily=TEMP_DIA
New PVSystem.GD_866f8a383ee05e9b26723d2295c35fdc0fdf8aa86f5bf3589edb37163f62e64d_1 phases=1 bus1=2486933-9364476.1.4 conn=wye kv=0.1270 pf=1 pmpp=3.17 kva=3.17 irradiance=1 temperature=25 %cutin=20 %cutout=20 effcurve=MyEff P-TCurve=MyPvsT Daily=IRRAD_DIA TDaily=TEMP_DIA
New PVSystem.GD_866f8a383ee05e9b26723d2295c35fdc0fdf8aa86f5bf3589edb37163f62e64d_2 phases=1 bus1=2486933-9364476.2.4 conn=wye kv=0.1270 pf=1 pmpp=3.17 kva=3.17 irradiance=1 temperature=25 %cutin=20 %cutout=20 effcurve=MyEff P-TCurve=MyPvsT Daily=IRRAD_DIA TDaily=TEMP_DIA
New PVSystem.GD_866f8a383ee05e9b26723d2295c35fdc0fdf8aa86f5bf3589edb37163f62e64d_3 phases=1 bus1=2486933-9364476.3.4 conn=wye kv=0.1270 pf=1 pmpp=3.17 kva=3.17 irradiance=1 temperature=25 %cutin=20 %cutout=20 effcurve=MyEff P-TCurve=MyPvsT Daily=IRRAD_DIA TDaily=TEMP_DIA
New PVSystem.GD_e8e34d89e5778e3db217f8c08c16b1462f73934885469ce03aa2a32ced245ef1_1 phases=1 bus1=2486933-9364476.1.4 conn=wye kv=0.1270 pf=1 pmpp=2.83 kva=2.83 irradiance=1 temperature=25 %cutin=20 %cutout=20 effcurve=MyEff P-TCurve=MyPvsT Daily=IRRAD_DIA TDaily=TEMP_DIA
New PVSystem.GD_e8e34d89e5778e3db217f8c08c16b1462f73934885469ce03aa2a32ced245ef1_2 phases=1 bus1=2486933-9364476.2.4 conn=wye kv=0.1270 pf=1 pmpp=2.83 kva=2.83 irradiance=1 temperature=25 %cutin=20 %cutout=20 effcurve=MyEff P-TCurve=MyPvsT Daily=IRRAD_DIA TDaily=TEMP_DIA
New PVSystem.GD_e8e34d89e5778e3db217f8c08c16b1462f73934885469ce03aa2a32ced245ef1_3 phases=1 bus1=2486933-9364476.3.4 conn=wye kv=0.1270 pf=1 pmpp=2.83 kva=2.83 irradiance=1 temperature=25 %cutin=20 %cutout=20 effcurve=MyEff P-TCurve=MyPvsT Daily=IRRAD_DIA TDaily=TEMP_DIA
New PVSystem.GD_6209ee976bf6274cb7d57a5cf9a0219dfc468d30acdb53d17fb6a89f7000babc_1 phases=1 bus1=2486933-9364476.1.4 conn=wye kv=0.1270 pf=1 pmpp=1.08 kva=1.08 irradiance=1 temperature=25 %cutin=20 %cutout=20 effcurve=MyEff P-TCurve=MyPvsT Daily=IRRAD_DIA TDaily=TEMP_DIA
New PVSystem.GD_6209ee976bf6274cb7d57a5cf9a0219dfc468d30acdb53d17fb6a89f7000babc_2 phases=1 bus1=2486933-9364476.2.4 conn=wye kv=0.1270 pf=1 pmpp=1.08 kva=1.08 irradiance=1 temperature=25 %cutin=20 %cutout=20 effcurve=MyEff P-TCurve=MyPvsT Daily=IRRAD_DIA TDaily=TEMP_DIA
New PVSystem.GD_6209ee976bf6274cb7d57a5cf9a0219dfc468d30acdb53d17fb6a89f7000babc_3 phases=1 bus1=2486933-9364476.3.4 conn=wye kv=0.1270 pf=1 pmpp=1.08 kva=1.08 irradiance=1 temperature=25 %cutin=20 %cutout=20 effcurve=MyEff P-TCurve=MyPvsT Daily=IRRAD_DIA TDaily=TEMP_DIA
New PVSystem.GD_e1a719b5ddd09d926594b4c7c0dc32733f111bd604aeab775ff20de24ef1a587_1 phases=1 bus1=2486933-9364476.1.4 conn=wye kv=0.1270 pf=1 pmpp=1.15 kva=1.15 irradiance=1 temperature=25 %cutin=20 %cutout=20 effcurve=MyEff P-TCurve=MyPvsT Daily=IRRAD_DIA TDaily=TEMP_DIA
New PVSystem.GD_e1a719b5ddd09d926594b4c7c0dc32733f111bd604aeab775ff20de24ef1a587_2 phases=1 bus1=2486933-9364476.2.4 conn=wye kv=0.1270 pf=1 pmpp=1.15 kva=1.15 irradiance=1 temperature=25 %cutin=20 %cutout=20 effcurve=MyEff P-TCurve=MyPvsT Daily=IRRAD_DIA TDaily=TEMP_DIA
New PVSystem.GD_e1a719b5ddd09d926594b4c7c0dc32733f111bd604aeab775ff20de24ef1a587_3 phases=1 bus1=2486933-9364476.3.4 conn=wye kv=0.1270 pf=1 pmpp=1.15 kva=1.15 irradiance=1 temperature=25 %cutin=20 %cutout=20 effcurve=MyEff P-TCurve=MyPvsT Daily=IRRAD_DIA TDaily=TEMP_DIA
New PVSystem.GD_7e2e6327a655d53b2954d6fa2e99b4f668c42dd98de54f1ae854ea80246b21e7_1 phases=1 bus1=2486933-9364476.1.4 conn=wye kv=0.1270 pf=1 pmpp=2.48 kva=2.48 irradiance=1 temperature=25 %cutin=20 %cutout=20 effcurve=MyEff P-TCurve=MyPvsT Daily=IRRAD_DIA TDaily=TEMP_DIA
New PVSystem.GD_7e2e6327a655d53b2954d6fa2e99b4f668c42dd98de54f1ae854ea80246b21e7_2 phases=1 bus1=2486933-9364476.2.4 conn=wye kv=0.1270 pf=1 pmpp=2.48 kva=2.48 irradiance=1 temperature=25 %cutin=20 %cutout=20 effcurve=MyEff P-TCurve=MyPvsT Daily=IRRAD_DIA TDaily=TEMP_DIA
New PVSystem.GD_7e2e6327a655d53b2954d6fa2e99b4f668c42dd98de54f1ae854ea80246b21e7_3 phases=1 bus1=2486933-9364476.3.4 conn=wye kv=0.1270 pf=1 pmpp=2.48 kva=2.48 irradiance=1 temperature=25 %cutin=20 %cutout=20 effcurve=MyEff P-TCurve=MyPvsT Daily=IRRAD_DIA TDaily=TEMP_DIA
New PVSystem.GD_7ba4ebfe83865952420be1705096773f1e839ab420e388595b40bf6bd584f3b0_1 phases=1 bus1=2486933-9364476.1.4 conn=wye kv=0.1270 pf=1 pmpp=0.79 kva=0.79 irradiance=1 temperature=25 %cutin=20 %cutout=20 effcurve=MyEff P-TCurve=MyPvsT Daily=IRRAD_DIA TDaily=TEMP_DIA
New PVSystem.GD_7ba4ebfe83865952420be1705096773f1e839ab420e388595b40bf6bd584f3b0_2 phases=1 bus1=2486933-9364476.2.4 conn=wye kv=0.1270 pf=1 pmpp=0.79 kva=0.79 irradiance=1 temperature=25 %cutin=20 %cutout=20 effcurve=MyEff P-TCurve=MyPvsT Daily=IRRAD_DIA TDaily=TEMP_DIA
New PVSystem.GD_7ba4ebfe83865952420be1705096773f1e839ab420e388595b40bf6bd584f3b0_3 phases=1 bus1=2486933-9364476.3.4 conn=wye kv=0.1270 pf=1 pmpp=0.79 kva=0.79 irradiance=1 temperature=25 %cutin=20 %cutout=20 effcurve=MyEff P-TCurve=MyPvsT Daily=IRRAD_DIA TDaily=TEMP_DIA
New PVSystem.GD_61013d3ff89a146cac907c9d20711597d9c6f3b9647d10dd3cde5cf79a6c0eb1_1 phases=1 bus1=3163424-12760703.1.4 conn=wye kv=0.1270 pf=1 pmpp=5.31 kva=5.31 irradiance=1 temperature=25 %cutin=20 %cutout=20 effcurve=MyEff P-TCurve=MyPvsT Daily=IRRAD_DIA TDaily=TEMP_DIA
New PVSystem.GD_61013d3ff89a146cac907c9d20711597d9c6f3b9647d10dd3cde5cf79a6c0eb1_2 phases=1 bus1=3163424-12760703.2.4 conn=wye kv=0.1270 pf=1 pmpp=5.31 kva=5.31 irradiance=1 temperature=25 %cutin=20 %cutout=20 effcurve=MyEff P-TCurve=MyPvsT Daily=IRRAD_DIA TDaily=TEMP_DIA
New PVSystem.GD_61013d3ff89a146cac907c9d20711597d9c6f3b9647d10dd3cde5cf79a6c0eb1_3 phases=1 bus1=3163424-12760703.3.4 conn=wye kv=0.1270 pf=1 pmpp=5.31 kva=5.31 irradiance=1 temperature=25 %cutin=20 %cutout=20 effcurve=MyEff P-TCurve=MyPvsT Daily=IRRAD_DIA TDaily=TEMP_DIA
New PVSystem.GD_7ba626e53d6c669821b4d9453e35d83b5ab1dc5a8111955f5a2b3ba3db5aa3bc_1 phases=1 bus1=3163424-12760703.1.4 conn=wye kv=0.1270 pf=1 pmpp=1.29 kva=1.29 irradiance=1 temperature=25 %cutin=20 %cutout=20 effcurve=MyEff P-TCurve=MyPvsT Daily=IRRAD_DIA TDaily=TEMP_DIA
New PVSystem.GD_7ba626e53d6c669821b4d9453e35d83b5ab1dc5a8111955f5a2b3ba3db5aa3bc_2 phases=1 bus1=3163424-12760703.2.4 conn=wye kv=0.1270 pf=1 pmpp=1.29 kva=1.29 irradiance=1 temperature=25 %cutin=20 %cutout=20 effcurve=MyEff P-TCurve=MyPvsT Daily=IRRAD_DIA TDaily=TEMP_DIA
New PVSystem.GD_7ba626e53d6c669821b4d9453e35d83b5ab1dc5a8111955f5a2b3ba3db5aa3bc_3 phases=1 bus1=3163424-12760703.3.4 conn=wye kv=0.1270 pf=1 pmpp=1.29 kva=1.29 irradiance=1 temperature=25 %cutin=20 %cutout=20 effcurve=MyEff P-TCurve=MyPvsT Daily=IRRAD_DIA TDaily=TEMP_DIA
New PVSystem.GD_c9e6b743d8fce1d1b321e01e41eeecca42d7c8e02c2c69cc6d115c9d56354ca1_1 phases=1 bus1=3163424-12760703.1.4 conn=wye kv=0.1270 pf=1 pmpp=0.81 kva=0.81 irradiance=1 temperature=25 %cutin=20 %cutout=20 effcurve=MyEff P-TCurve=MyPvsT Daily=IRRAD_DIA TDaily=TEMP_DIA
New PVSystem.GD_c9e6b743d8fce1d1b321e01e41eeecca42d7c8e02c2c69cc6d115c9d56354ca1_2 phases=1 bus1=3163424-12760703.2.4 conn=wye kv=0.1270 pf=1 pmpp=0.81 kva=0.81 irradiance=1 temperature=25 %cutin=20 %cutout=20 effcurve=MyEff P-TCurve=MyPvsT Daily=IRRAD_DIA TDaily=TEMP_DIA
New PVSystem.GD_c9e6b743d8fce1d1b321e01e41eeecca42d7c8e02c2c69cc6d115c9d56354ca1_3 phases=1 bus1=3163424-12760703.3.4 conn=wye kv=0.1270 pf=1 pmpp=0.81 kva=0.81 irradiance=1 temperature=25 %cutin=20 %cutout=20 effcurve=MyEff P-TCurve=MyPvsT Daily=IRRAD_DIA TDaily=TEMP_DIA
New PVSystem.GD_8b72da646fc146a26cc467a68b9d6660a91fe6648f0d3d417ccf597c43fda166_1 phases=1 bus1=2486645-9362333.1.4 conn=wye kv=0.1270 pf=1 pmpp=5.12 kva=5.12 irradiance=1 temperature=25 %cutin=20 %cutout=20 effcurve=MyEff P-TCurve=MyPvsT Daily=IRRAD_DIA TDaily=TEMP_DIA
New PVSystem.GD_8b72da646fc146a26cc467a68b9d6660a91fe6648f0d3d417ccf597c43fda166_2 phases=1 bus1=2486645-9362333.2.4 conn=wye kv=0.1270 pf=1 pmpp=5.12 kva=5.12 irradiance=1 temperature=25 %cutin=20 %cutout=20 effcurve=MyEff P-TCurve=MyPvsT Daily=IRRAD_DIA TDaily=TEMP_DIA
New PVSystem.GD_8b72da646fc146a26cc467a68b9d6660a91fe6648f0d3d417ccf597c43fda166_3 phases=1 bus1=2486645-9362333.3.4 conn=wye kv=0.1270 pf=1 pmpp=5.12 kva=5.12 irradiance=1 temperature=25 %cutin=20 %cutout=20 effcurve=MyEff P-TCurve=MyPvsT Daily=IRRAD_DIA TDaily=TEMP_DIA
New PVSystem.GD_2a4f8fd7d004bb01d8d69906629e7bd27b3da38cc3920bd4de39e522b7904439_1 phases=1 bus1=2486622-9361652.1.4 conn=wye kv=0.1270 pf=1 pmpp=0.74 kva=0.74 irradiance=1 temperature=25 %cutin=20 %cutout=20 effcurve=MyEff P-TCurve=MyPvsT Daily=IRRAD_DIA TDaily=TEMP_DIA
New PVSystem.GD_2a4f8fd7d004bb01d8d69906629e7bd27b3da38cc3920bd4de39e522b7904439_2 phases=1 bus1=2486622-9361652.2.4 conn=wye kv=0.1270 pf=1 pmpp=0.74 kva=0.74 irradiance=1 temperature=25 %cutin=20 %cutout=20 effcurve=MyEff P-TCurve=MyPvsT Daily=IRRAD_DIA TDaily=TEMP_DIA
New PVSystem.GD_2a4f8fd7d004bb01d8d69906629e7bd27b3da38cc3920bd4de39e522b7904439_3 phases=1 bus1=2486622-9361652.3.4 conn=wye kv=0.1270 pf=1 pmpp=0.74 kva=0.74 irradiance=1 temperature=25 %cutin=20 %cutout=20 effcurve=MyEff P-TCurve=MyPvsT Daily=IRRAD_DIA TDaily=TEMP_DIA
New PVSystem.GD_fa7f00ed9e60dc97854b9c2f6233c37ae0da64e423678fa8e76f25014b2fbe4b_1 phases=1 bus1=2486622-9361652.1.4 conn=wye kv=0.1270 pf=1 pmpp=2.44 kva=2.44 irradiance=1 temperature=25 %cutin=20 %cutout=20 effcurve=MyEff P-TCurve=MyPvsT Daily=IRRAD_DIA TDaily=TEMP_DIA
New PVSystem.GD_fa7f00ed9e60dc97854b9c2f6233c37ae0da64e423678fa8e76f25014b2fbe4b_2 phases=1 bus1=2486622-9361652.2.4 conn=wye kv=0.1270 pf=1 pmpp=2.44 kva=2.44 irradiance=1 temperature=25 %cutin=20 %cutout=20 effcurve=MyEff P-TCurve=MyPvsT Daily=IRRAD_DIA TDaily=TEMP_DIA
New PVSystem.GD_fa7f00ed9e60dc97854b9c2f6233c37ae0da64e423678fa8e76f25014b2fbe4b_3 phases=1 bus1=2486622-9361652.3.4 conn=wye kv=0.1270 pf=1 pmpp=2.44 kva=2.44 irradiance=1 temperature=25 %cutin=20 %cutout=20 effcurve=MyEff P-TCurve=MyPvsT Daily=IRRAD_DIA TDaily=TEMP_DIA
New PVSystem.GD_473e55bb622935aaa520b921545a9e48c713b7a4a15d453afcac3751bb6cf09e_1 phases=1 bus1=2486622-9361652.1.4 conn=wye kv=0.1270 pf=1 pmpp=1.97 kva=1.97 irradiance=1 temperature=25 %cutin=20 %cutout=20 effcurve=MyEff P-TCurve=MyPvsT Daily=IRRAD_DIA TDaily=TEMP_DIA
New PVSystem.GD_473e55bb622935aaa520b921545a9e48c713b7a4a15d453afcac3751bb6cf09e_2 phases=1 bus1=2486622-9361652.2.4 conn=wye kv=0.1270 pf=1 pmpp=1.97 kva=1.97 irradiance=1 temperature=25 %cutin=20 %cutout=20 effcurve=MyEff P-TCurve=MyPvsT Daily=IRRAD_DIA TDaily=TEMP_DIA
New PVSystem.GD_473e55bb622935aaa520b921545a9e48c713b7a4a15d453afcac3751bb6cf09e_3 phases=1 bus1=2486622-9361652.3.4 conn=wye kv=0.1270 pf=1 pmpp=1.97 kva=1.97 irradiance=1 temperature=25 %cutin=20 %cutout=20 effcurve=MyEff P-TCurve=MyPvsT Daily=IRRAD_DIA TDaily=TEMP_DIA
New PVSystem.GD_f14ef8d2c65bfc69d37eebe7c477365698024cc1e9a874c0d82dba7b89678592_1 phases=1 bus1=2486622-9361652.1.4 conn=wye kv=0.1270 pf=1 pmpp=4.75 kva=4.75 irradiance=1 temperature=25 %cutin=20 %cutout=20 effcurve=MyEff P-TCurve=MyPvsT Daily=IRRAD_DIA TDaily=TEMP_DIA
New PVSystem.GD_f14ef8d2c65bfc69d37eebe7c477365698024cc1e9a874c0d82dba7b89678592_2 phases=1 bus1=2486622-9361652.2.4 conn=wye kv=0.1270 pf=1 pmpp=4.75 kva=4.75 irradiance=1 temperature=25 %cutin=20 %cutout=20 effcurve=MyEff P-TCurve=MyPvsT Daily=IRRAD_DIA TDaily=TEMP_DIA
New PVSystem.GD_f14ef8d2c65bfc69d37eebe7c477365698024cc1e9a874c0d82dba7b89678592_3 phases=1 bus1=2486622-9361652.3.4 conn=wye kv=0.1270 pf=1 pmpp=4.75 kva=4.75 irradiance=1 temperature=25 %cutin=20 %cutout=20 effcurve=MyEff P-TCurve=MyPvsT Daily=IRRAD_DIA TDaily=TEMP_DIA
...
